%%%%%%%%%%%%%%%%%%%%%%%%%%%%%%%%%%%%%%%%%%%%%%%%%%%%%%%%%%%%%%%%%%%%%%%%%%%%%%%%
%                                                                              %
% SU2 configuration file                                                       %
% Case description: Unsteady periodic detached NACA0012 simulation             %
% Author: Steffen Schotthöfer                                                  %
% Date: Jan 21, 2020                                                           %
% File Version 7.0.1 "Blackbird" (or newer)                                    %
%                                                                              %
%%%%%%%%%%%%%%%%%%%%%%%%%%%%%%%%%%%%%%%%%%%%%%%%%%%%%%%%%%%%%%%%%%%%%%%%%%%%%%%%

% ------------- DIRECT, ADJOINT, AND LINEARIZED PROBLEM DEFINITION ------------%
%
% Physical governing equations (EULER, NAVIER_STOKES, NS_PLASMA)
%                               
SOLVER= RANS
%
% Specify turbulent model (NONE, SA, SA_NEG, SST)
KIND_TURB_MODEL= SA
%
% Mathematical problem (DIRECT, CONTINUOUS_ADJOINT)
MATH_PROBLEM= DIRECT
%
% ------------------------- UNSTEADY SIMULATION -------------------------------%
%
TIME_DOMAIN = YES
%
% Numerical Method for Unsteady simulation(NO, TIME_STEPPING, DUAL_TIME_STEPPING-1ST_ORDER, DUAL_TIME_STEPPING-2ND_ORDER, TIME_SPECTRAL)
TIME_MARCHING = DUAL_TIME_STEPPING-2ND_ORDER
%
% Time Step for dual time stepping simulations (s)
TIME_STEP = 1e-2
%
% Maximum Number of physical time steps.

TIME_ITER = 3
INNER_ITER= 30
%
% Restart after the transient phase has passed
RESTART_SOL = YES
RESTART_ITER = 2

% -------------------- COMPRESSIBLE FREE-STREAM DEFINITION --------------------%
%
% Mach number (non-dimensional, based on the free-stream values)

MACH_NUMBER = 2.321447058415472
REF_DIMENSIONALIZATION = DIMENSIONAL
AOA = 0
%

%FREESTREAM_TEMPERATURE = 282.0173892894408
REYNOLDS_LENGTH= 15.0

REYNOLDS_NUMBER = 5449386.94155013
%
FREESTREAM_PRESSURE = 501.1769974530322
FREESTREAM_DENSITY = 0.007289623521763475
% Reference origin for moment computation
REF_ORIGIN_MOMENT_X = 0.25
REF_ORIGIN_MOMENT_Y = 0.00
REF_ORIGIN_MOMENT_Z = 0.00
%
% Reference length for pitching, rolling, and yawing non-dimensional moment
REF_LENGTH= 10
%
% Reference area for force coefficients (0 implies automatic calculation)
REF_AREA= 0
%
% -------------------- BOUNDARY CONDITION DEFINITION --------------------------%
%
% Navier-Stokes wall boundary marker(s) (NONE = no marker)
MARKER_HEATFLUX= ( ROCKET, 0.0)
%
% Farfield boundary marker(s) (NONE = no marker)
MARKER_FAR= ( FARFIELD)

% Marker(s) of the surface to be plotted or designed
MARKER_PLOTTING= (  ROCKET )
%
% Marker(s) of the surface where the functional (Cd, Cl, etc.) will be evaluated
MARKER_MONITORING= (ROCKET)
%
% ------------- COMMON PARAMETERS DEFINING THE NUMERICAL METHOD ---------------%
%
% Numerical method for spatial gradients (GREEN_GAUSS, WEIGHTED_LEAST_SQUARES)
NUM_METHOD_GRAD= WEIGHTED_LEAST_SQUARES
%
% Courant-Friedrichs-Lewy condition of the finest grid
CFL_NUMBER= 20.0
%
% Adaptive CFL number (NO, YES)
CFL_ADAPT= NO
%
% Parameters of the adaptive CFL number (factor down, factor up, CFL min value,
%                                        CFL max value )
CFL_ADAPT_PARAM= ( 1.5, 0.5, 1.0, 100.0 )
%
% Runge-Kutta alpha coefficients
RK_ALPHA_COEFF= ( 0.66667, 0.66667, 1.000000 )
%
%
% Linear solver for the implicit formulation (BCGSTAB, FGMRES)
LINEAR_SOLVER= FGMRES
%
% Min error of the linear solver for the implicit formulation
LINEAR_SOLVER_ERROR= 1E-6
%
% Max number of iterations of the linear solver for the implicit formulation
LINEAR_SOLVER_ITER= 5
%
% -------------------- FLOW NUMERICAL METHOD DEFINITION -----------------------%
%
% Convective numerical method (JST, LAX-FRIEDRICH, CUSP, ROE, AUSM, HLLC,
%                              TURKEL_PREC, MSW)
CONV_NUM_METHOD_FLOW= JST_MAT
%
% Spatial numerical order integration (1ST_ORDER, 2ND_ORDER, 2ND_ORDER_LIMITER)
%
% 1st, 2nd and 4th order artificial dissipation coefficients
%JST_SENSOR_COEFF= (  0.05, 0.2 )
ENTROPY_FIX_COEFF = 0.1
%
% Time discretization (RUNGE-KUTTA_EXPLICIT, EULER_IMPLICIT, EULER_EXPLICIT)
TIME_DISCRE_FLOW= EULER_IMPLICIT
%
% -------------------- TURBULENT NUMERICAL METHOD DEFINITION ------------------%
%
% Convective numerical method (SCALAR_UPWIND)
CONV_NUM_METHOD_TURB= SCALAR_UPWIND
%
% Spatial numerical order integration (1ST_ORDER, 2ND_ORDER, 2ND_ORDER_LIMITER)
%
MUSCL_TURB= NO
%
% Time discretization (EULER_IMPLICIT)
TIME_DISCRE_TURB= EULER_IMPLICIT
%
% --------------------------- CONVERGENCE PARAMETERS --------------------------%
%
% Convergence criteria (CAUCHY, RESIDUAL)
CONV_CRITERIA = RESIDUAL
% Field to apply Cauchy Criterion to
CONV_FIELD= DRAG %REL_RMS_DENSITY
% Min value of the residual (log10 of the residual)
CONV_RESIDUAL_MINVAL= -5
%
%% Time convergence monitoring
WINDOW_CAUCHY_CRIT = YES
%
% List of time convergence fields 
CONV_WINDOW_FIELD = (TAVG_DRAG, TAVG_LIFT)
%
% Time Convergence Monitoring starts at Iteration WINDOW_START_ITER + CONV_WINDOW_STARTITER
CONV_WINDOW_STARTITER = 0
%
% Epsilon to control the series convergence
CONV_WINDOW_CAUCHY_EPS = 1E-5
%
% Number of elements to apply the criteria
CONV_WINDOW_CAUCHY_ELEMS = 10
%
% Starting iteration for windowed-time-averaging
WINDOW_START_ITER = 5
%
% Window used for reverse sweep. Options (SQUARE, HANN, HANN_SQUARE, BUMP)
WINDOW_FUNCTION = HANN_SQUARE
%
% ------------------------- INPUT/OUTPUT INFORMATION --------------------------%
%
HISTORY_WRT_FREQ_INNER=250
SCREEN_WRT_FREQ_INNER = 250
%
% Mesh input file
MESH_FILENAME= WT_PW_C-GRID_TEST_4.su2	
%
% Mesh input file format (SU2, CGNS, NETCDF_ASCII)
MESH_FORMAT= SU2
%
% Mesh output file
%MESH_OUT_FILENAME= mesh_out.su2
%
% Restart flow input file
SOLUTION_FILENAME= restart_flow.dat
%
% What file you want to output
OUTPUT_FILES = RESTART

OUTPUT_WRT_FREQ = 1

SOLUTION_ADJ_FILENAME= restart_adj.dat
%
% Output file format (PARAVIEW, TECPLOT, STL)
TABULAR_FORMAT= CSV
%
% Output file convergence history (w/o extension) 
CONV_FILENAME= history
%
% Output file restart flow
RESTART_FILENAME= restart_flow.dat
%
% Output file restart adjoint
%RESTART_ADJ_FILENAME= restart_adj.dat
%
% Output file flow (w/o extension) variables
%VOLUME_FILENAME= flow
%
% Output file surface flow coefficient (w/o extension)
%SURFACE_FILENAME= surface_flow
%
%
SCREEN_OUTPUT=(TIME_ITER, INNER_ITER,  DRAG, LIFT, WALL_TIME)
HISTORY_OUTPUT=(ITER,REL_RMS_RES,RMS_RES, AERO_COEFF,TAVG_AERO_COEFF, CAUCHY)
%
